*NODE
1, 0.000000000000e+00, 0.000000000000e+00, 0.000000000000e+00
2, 5.000000000000e-01, 0.000000000000e+00, 0.000000000000e+00
3, 1.000000000000e+00, 0.000000000000e+00, 0.000000000000e+00
4, 0.000000000000e+00, 5.000000000000e-01, 0.000000000000e+00
5, 5.000000000000e-01, 5.000000000000e-01, 0.000000000000e+00
6, 1.000000000000e+00, 5.000000000000e-01, 0.000000000000e+00
7, 0.000000000000e+00, 1.000000000000e+00, 0.000000000000e+00
8, 5.000000000000e-01, 1.000000000000e+00, 0.000000000000e+00
9, 1.000000000000e+00, 1.000000000000e+00, 0.000000000000e+00
10, 0.000000000000e+00, 0.000000000000e+00, 5.000000000000e-01
11, 5.000000000000e-01, 0.000000000000e+00, 5.000000000000e-01
12, 1.000000000000e+00, 0.000000000000e+00, 5.000000000000e-01
13, 0.000000000000e+00, 5.000000000000e-01, 5.000000000000e-01
14, 5.000000000000e-01, 5.000000000000e-01, 5.000000000000e-01
15, 1.000000000000e+00, 5.000000000000e-01, 5.000000000000e-01
16, 0.000000000000e+00, 1.000000000000e+00, 5.000000000000e-01
17, 5.000000000000e-01, 1.000000000000e+00, 5.000000000000e-01
18, 1.000000000000e+00, 1.000000000000e+00, 5.000000000000e-01
19, 0.000000000000e+00, 0.000000000000e+00, 1.000000000000e+00
20, 5.000000000000e-01, 0.000000000000e+00, 1.000000000000e+00
** ... 7 like lines cut
*ELEMENT,TYPE=C3D4,ELSET=EALL
1, 1, 2, 5, 14
2, 1, 5, 4, 14
3, 1, 4, 13, 14
4, 1, 13, 10, 14
5, 1, 10, 11, 14
6, 1, 11, 2, 14
7, 2, 3, 6, 15
8, 2, 6, 5, 15
9, 2, 5, 14, 15
10, 2, 14, 11, 15
11, 2, 11, 12, 15
12, 2, 12, 3, 15
13, 4, 5, 8, 17
14, 4, 8, 7, 17
15, 4, 7, 16, 17
16, 4, 16, 13, 17
17, 4, 13, 14, 17
18, 4, 14, 5, 17
19, 5, 6, 9, 18
20, 5, 9, 8, 18
** ... 28 like lines cut
*NSET,NSET=XEND
3,6,9,12,15,18,21,24,27
*SOLID SECTION,ELSET=EALL,MATERIAL=M
*MATERIAL,NAME=M
*ELASTIC
1.320000000000e+06, 4.999000000000e-01
*STEP
*STATIC,SOLVER=SPOOLES
*BOUNDARY
1,1,1,0.
3,1,1,1.000000000000e-04
4,1,1,0.
6,1,1,1.000000000000e-04
7,1,1,0.
9,1,1,1.000000000000e-04
10,1,1,0.
12,1,1,1.000000000000e-04
13,1,1,0.
15,1,1,1.000000000000e-04
16,1,1,0.
18,1,1,1.000000000000e-04
19,1,1,0.
21,1,1,1.000000000000e-04
22,1,1,0.
24,1,1,1.000000000000e-04
25,1,1,0.
27,1,1,1.000000000000e-04
1,2,2,0.
7,2,2,0.
** ... 34 like lines cut
*NODE PRINT,NSET=XEND
RF
*END STEP
