*NODE
1, 0.000000000000e+00, 0.000000000000e+00, 0.000000000000e+00
2, 2.500000000000e-01, 0.000000000000e+00, 0.000000000000e+00
3, 5.000000000000e-01, 0.000000000000e+00, 0.000000000000e+00
4, 7.500000000000e-01, 0.000000000000e+00, 0.000000000000e+00
5, 1.000000000000e+00, 0.000000000000e+00, 0.000000000000e+00
6, 0.000000000000e+00, 2.500000000000e-01, 0.000000000000e+00
7, 2.500000000000e-01, 2.500000000000e-01, 0.000000000000e+00
8, 5.000000000000e-01, 2.500000000000e-01, 0.000000000000e+00
9, 7.500000000000e-01, 2.500000000000e-01, 0.000000000000e+00
10, 1.000000000000e+00, 2.500000000000e-01, 0.000000000000e+00
11, 0.000000000000e+00, 5.000000000000e-01, 0.000000000000e+00
12, 2.500000000000e-01, 5.000000000000e-01, 0.000000000000e+00
13, 5.000000000000e-01, 5.000000000000e-01, 0.000000000000e+00
14, 7.500000000000e-01, 5.000000000000e-01, 0.000000000000e+00
15, 1.000000000000e+00, 5.000000000000e-01, 0.000000000000e+00
16, 0.000000000000e+00, 7.500000000000e-01, 0.000000000000e+00
17, 2.500000000000e-01, 7.500000000000e-01, 0.000000000000e+00
18, 5.000000000000e-01, 7.500000000000e-01, 0.000000000000e+00
19, 7.500000000000e-01, 7.500000000000e-01, 0.000000000000e+00
20, 1.000000000000e+00, 7.500000000000e-01, 0.000000000000e+00
** ... 105 like lines cut
*ELEMENT,TYPE=C3D4,ELSET=EALL
1, 1, 2, 7, 32
2, 1, 7, 6, 32
3, 1, 6, 31, 32
4, 1, 31, 26, 32
5, 1, 26, 27, 32
6, 1, 27, 2, 32
7, 2, 3, 8, 33
8, 2, 8, 7, 33
9, 2, 7, 32, 33
10, 2, 32, 27, 33
11, 2, 27, 28, 33
12, 2, 28, 3, 33
13, 3, 4, 9, 34
14, 3, 9, 8, 34
15, 3, 8, 33, 34
16, 3, 33, 28, 34
17, 3, 28, 29, 34
18, 3, 29, 4, 34
19, 4, 5, 10, 35
20, 4, 10, 9, 35
** ... 364 like lines cut
*NSET,NSET=XEND
5,10,15,20,25,30,35,40
45,50,55,60,65,70,75,80
85,90,95,100,105,110,115,120
125
*SOLID SECTION,ELSET=EALL,MATERIAL=M
*MATERIAL,NAME=M
*ELASTIC
1.320000000000e+06, 4.999000000000e-01
*STEP
*STATIC,SOLVER=SPOOLES
*BOUNDARY
1,1,1,0.
5,1,1,1.000000000000e-04
6,1,1,0.
10,1,1,1.000000000000e-04
11,1,1,0.
15,1,1,1.000000000000e-04
16,1,1,0.
20,1,1,1.000000000000e-04
21,1,1,0.
25,1,1,1.000000000000e-04
26,1,1,0.
30,1,1,1.000000000000e-04
31,1,1,0.
35,1,1,1.000000000000e-04
36,1,1,0.
40,1,1,1.000000000000e-04
41,1,1,0.
45,1,1,1.000000000000e-04
46,1,1,0.
50,1,1,1.000000000000e-04
** ... 130 like lines cut
*NODE PRINT,NSET=XEND
RF
*EL PRINT,ELSET=EALL
S
*END STEP
