*NODE
1, 0.1, 0.2, 0.3
2, 1.3, 0.1, 0.4
3, 0.2, 1.1, 0.15
4, 0.35, 0.25, 1.4
*USER ELEMENT,TYPE=U4,NODES=4,INTEGRATIONPOINTS=1,MAXDOF=4
*ELEMENT,TYPE=U4,ELSET=EALL
1, 1, 2, 3, 4
*SOLID SECTION,ELSET=EALL,MATERIAL=M
*MATERIAL,NAME=M
*ELASTIC
1.320000000000e+06, 4.999000000000e-01
*STEP
*STATIC,SOLVER=SPOOLES
*BOUNDARY
1,1,1,1.000000000000e-04
1,2,3,0.
2,1,1,1.300000000000e-03
2,2,3,0.
3,1,1,2.000000000000e-04
3,2,3,0.
4,1,1,3.500000000000e-04
4,2,3,0.
*EL PRINT,ELSET=EALL
S
*END STEP
