*NODE
1, 0., 0., 0.
2, 1., 0., 0.
3, 0., 1., 0.
4, 0., 0., 1.
*USER ELEMENT,TYPE=U4,NODES=4,INTEGRATIONPOINTS=1,MAXDOF=4
*ELEMENT,TYPE=U4,ELSET=EALL
1, 1, 2, 3, 4
*SOLID SECTION,ELSET=EALL,MATERIAL=M
*MATERIAL,NAME=M
*ELASTIC
9.43e9, 0.33
*STEP
*STATIC,SOLVER=SPOOLES
*BOUNDARY
1,1,3,0.
2,1,1,0.001
2,2,3,0.
3,1,3,0.
4,1,3,0.
*EL PRINT,ELSET=EALL
S
*END STEP
